@<TRIPOS>MOLECULE
*****
   24    24     0     0     0
SMALL
USER_CHARGES

@<TRIPOS>ATOM
      1 C1          7.5814   39.5081   29.8989 C.3       1 CB8-G11        -0.1137
      2 C2          7.6420   38.7566   28.5692 C.3       1 CB8-G11        -0.1136
      3 C3          9.6897   40.7730   29.2801 C.3       1 CB8-G11        -0.1136
      4 C4          9.7505   40.0214   27.9505 C.3       1 CB8-G11        -0.1136
      5 C5          8.9761   39.9428   30.3459 C.3       1 CB8-G11         0.1172
      6 C6          8.3559   39.5864   27.5035 C.3       1 CB8-G11         0.1172
      7 N1          8.8518   40.7561   31.5848 N.4       1 CB8-G11        -0.8412
      8 N2          8.4804   38.7727   26.2648 N.4       1 CB8-G11        -0.8412
      9 H1          6.9249   40.3696   29.8012 H         1 CB8-G11         0.1001
     10 H2          7.1539   38.8585   30.6600 H         1 CB8-G11         0.1001
     11 H3          8.1450   37.8030   28.7122 H         1 CB8-G11         0.1001
     12 H4          6.6305   38.5425   28.2303 H         1 CB8-G11         0.1001
     13 H5         10.7012   40.9872   29.6190 H         1 CB8-G11         0.1001
     14 H6          9.1864   41.7264   29.1373 H         1 CB8-G11         0.1001
     15 H7         10.1779   40.6708   27.1891 H         1 CB8-G11         0.1001
     16 H8         10.4072   39.1600   28.0482 H         1 CB8-G11         0.1001
     17 H9          9.5762   39.0760   30.6194 H         1 CB8-G11         0.1329
     18 H10         7.7555   40.4532   27.2307 H         1 CB8-G11         0.1329
     19 H11         8.1594   40.3453   32.2153 H         1 CB8-G11         0.4727
     20 H12         8.5576   41.7093   31.3591 H         1 CB8-G11         0.4727
     21 H13         9.7482   40.8020   32.0749 H         1 CB8-G11         0.4727
     22 H14         8.5335   37.7774   26.4935 H         1 CB8-G11         0.4727
     23 H15         9.3256   39.0313   25.7501 H         1 CB8-G11         0.4727
     24 H16         7.6728   38.9215   25.6554 H         1 CB8-G11         0.4727
@<TRIPOS>BOND
     1    1    2 1
     2    1    5 1
     3    2    6 1
     4    3    4 1
     5    3    5 1
     6    4    6 1
     7    5    7 1
     8    6    8 1
     9    1    9 1
    10    1   10 1
    11    2   11 1
    12    2   12 1
    13    3   13 1
    14    3   14 1
    15    4   15 1
    16    4   16 1
    17    5   17 1
    18    6   18 1
    19    7   19 1
    20    7   20 1
    21    7   21 1
    22    8   22 1
    23    8   23 1
    24    8   24 1
