@<TRIPOS>MOLECULE
*****
   29    31     0     0     0
SMALL
NO_CHARGES

@<TRIPOS>ATOM
      1 O1         12.3322   38.7365   32.1556 O.2       1 <0>         0.0000
      2 C1         11.1835   38.5554   31.8023 C.2       1 <0>         0.0000
      3 C2         10.2397   39.6533   31.5260 C.2       1 <0>         0.0000
      4 O2          9.0247   39.2875   31.0735 O.3       1 <0>         0.0000
      5 O3         10.5603   40.8270   31.6121 O.2       1 <0>         0.0000
      6 O4         10.7265   37.3216   31.5686 O.3       1 <0>         0.0000
      7 Pt1         9.0445   37.3921   30.6146 Pt        1 <0>         0.0000
      8 N1          9.9475   38.0789   28.9041 N.4       1 <0>         0.0000
      9 H1          9.9442   39.1255   28.8810 H         1 <0>         0.0000
     10 H2         10.9431   37.7667   28.8403 H         1 <0>         0.0000
     11 C3          9.0846   37.5768   27.8540 C.3       1 <0>         0.0000
     12 H3          9.2726   36.4828   27.8060 H         1 <0>         0.0000
     13 C4          9.3666   38.2120   26.4680 C.3       1 <0>         0.0000
     14 C5          8.4728   37.5150   25.4248 C.3       1 <0>         0.0000
     15 C6          6.9817   37.5930   25.8086 C.3       1 <0>         0.0000
     16 C7          6.7361   37.0725   27.2247 C.3       1 <0>         0.0000
     17 C8          7.6002   37.8420   28.2289 C.3       1 <0>         0.0000
     18 H4          7.4146   38.9421   28.1593 H         1 <0>         0.0000
     19 N2          7.2854   37.4203   29.6018 N.4       1 <0>         0.0000
     20 H5          6.5651   38.0497   30.0301 H         1 <0>         0.0000
     21 H6          6.9508   36.4299   29.6244 H         1 <0>         0.0000
     22 H7         10.4337   38.0960   26.1760 H         1 <0>         0.0000
     23 H8          9.1433   39.3052   26.4875 H         1 <0>         0.0000
     24 H9          8.7788   36.4480   25.3711 H         1 <0>         0.0000
     25 H10         8.6161   37.9676   24.4202 H         1 <0>         0.0000
     26 H11         6.3780   36.9878   25.0995 H         1 <0>         0.0000
     27 H12         6.6372   38.6474   25.7656 H         1 <0>         0.0000
     28 H13         7.0091   35.9919   27.2812 H         1 <0>         0.0000
     29 H14         5.6653   37.1754   27.4896 H         1 <0>         0.0000
@<TRIPOS>BOND
     1    1    2 2
     2    2    3 1
     3    3    4 1
     4    3    5 2
     5    2    6 1
     6    6    7 1
     7    4    7 1
     8    7    8 1
     9    8    9 1
    10    8   10 1
    11    8   11 1
    12   11   12 1
    13   11   13 1
    14   13   14 1
    15   14   15 1
    16   15   16 1
    17   16   17 1
    18   17   18 1
    19   11   17 1
    20   17   19 1
    21   19   20 1
    22   19   21 1
    23    7   19 1
    24   13   22 1
    25   13   23 1
    26   14   24 1
    27   14   25 1
    28   15   26 1
    29   15   27 1
    30   16   28 1
    31   16   29 1
