@<TRIPOS>MOLECULE
*****
   58    61     0     0     0
SMALL
USER_CHARGES

@<TRIPOS>ATOM
      1 C1         17.8258   41.7266   28.9725 C.ar      1 CB8-G12        -0.0837
      2 C2         17.4105   40.9731   30.0703 C.ar      1 CB8-G12        -0.1152
      3 C3         17.1271   42.8792   28.6132 C.ar      1 CB8-G12        -0.1152
      4 C4         16.2964   41.3720   30.8088 C.ar      1 CB8-G12        -0.1088
      5 C5         16.0130   43.2782   29.3517 C.ar      1 CB8-G12        -0.1088
      6 C6          6.8798   36.6903   28.1119 C.ar      1 CB8-G12        -0.0805
      7 C7          9.4827   36.5880   27.0063 C.ar      1 CB8-G12        -0.1412
      8 C8          7.9321   37.4151   28.6400 C.ar      1 CB8-G12        -0.1863
      9 C9          9.2166   37.3790   28.1124 C.ar      1 CB8-G12        -0.0633
     10 C10        15.5977   42.5246   30.4495 C.ar      1 CB8-G12        -0.1760
     11 C11         7.1467   35.8918   27.0000 C.ar      1 CB8-G12         0.0824
     12 C12         8.4389   35.8403   26.4509 C.ar      1 CB8-G12         0.1238
     13 C13         7.9327   38.3142   29.7830 C.2       1 CB8-G12         0.5926
     14 C14        10.1738   38.2632   28.8466 C.3       1 CB8-G12        -0.0329
     15 C15        10.6404   42.3627   30.8626 C.3       1 CB8-G12        -0.1060
     16 C16        11.8866   40.3298   30.0504 C.3       1 CB8-G12        -0.1060
     17 C17        11.9206   42.8846   31.5006 C.3       1 CB8-G12         0.1109
     18 C18        13.1603   40.8620   30.6928 C.3       1 CB8-G12         0.1109
     19 C19         9.3411   38.8292   30.0201 C.3       1 CB8-G12        -0.1772
     20 C20        10.6322   40.8321   30.7749 C.3       1 CB8-G12        -0.0806
     21 C21         4.8539   35.2633   27.0604 C.3       1 CB8-G12         0.1106
     22 C22         8.5231   35.6614   24.0809 C.3       1 CB8-G12         0.1148
     23 C23        14.3992   42.9541   31.2433 C.3       1 CB8-G12         0.1752
     24 C24         9.3678   40.3362   30.0767 C.3       1 CB8-G12        -0.0653
     25 N1         13.1120   42.3703   30.7296 N.4       1 CB8-G12        -0.6878
     26 O1          6.9406   38.5843   30.4357 O.2       1 CB8-G12        -0.5221
     27 O2          6.1373   35.1597   26.4484 O.3       1 CB8-G12        -0.3170
     28 O3          8.6902   35.0585   25.3617 O.3       1 CB8-G12        -0.3238
     29 H1         18.6940   41.4166   28.3984 H         1 CB8-G12         0.1603
     30 H2         17.9550   40.0762   30.3509 H         1 CB8-G12         0.1594
     31 H3         17.4508   43.4668   27.7592 H         1 CB8-G12         0.1594
     32 H4         15.9800   40.7786   31.6626 H         1 CB8-G12         0.1365
     33 H5         15.4747   44.1775   29.0643 H         1 CB8-G12         0.1365
     34 H6          5.8860   36.7373   28.5435 H         1 CB8-G12         0.1664
     35 H7         10.4798   36.5508   26.5789 H         1 CB8-G12         0.1544
     36 H8         11.0231   37.6842   29.2243 H         1 CB8-G12         0.0608
     37 H9         10.5468   39.0530   28.1862 H         1 CB8-G12         0.0608
     38 H10         9.7803   42.7073   31.4489 H         1 CB8-G12         0.0851
     39 H11        10.5324   42.7948   29.8591 H         1 CB8-G12         0.0851
     40 H12        11.8564   40.6354   28.9965 H         1 CB8-G12         0.0851
     41 H13        11.9095   39.2336   30.0607 H         1 CB8-G12         0.0851
     42 H14        11.9511   43.9785   31.4629 H         1 CB8-G12         0.1019
     43 H15        12.0250   42.5500   32.5388 H         1 CB8-G12         0.1019
     44 H16        13.2773   40.5065   31.7226 H         1 CB8-G12         0.1019
     45 H17        14.0375   40.5747   30.1039 H         1 CB8-G12         0.1019
     46 H18         9.7039   38.4084   30.9657 H         1 CB8-G12         0.0751
     47 H19        10.6355   40.4266   31.7954 H         1 CB8-G12         0.0812
     48 H20         4.1417   34.6311   26.5244 H         1 CB8-G12         0.0499
     49 H21         4.5217   36.3042   27.0384 H         1 CB8-G12         0.0499
     50 H22         4.9265   34.9278   28.0976 H         1 CB8-G12         0.0499
     51 H23         8.7546   34.9319   23.3009 H         1 CB8-G12         0.0488
     52 H24         9.1864   36.5257   23.9947 H         1 CB8-G12         0.0488
     53 H25         7.4861   35.9884   23.9745 H         1 CB8-G12         0.0488
     54 H26        14.4876   42.6475   32.2911 H         1 CB8-G12         0.1032
     55 H27        14.2809   44.0429   31.2231 H         1 CB8-G12         0.1032
     56 H28         9.3540   40.7604   29.0772 H         1 CB8-G12         0.0650
     57 H29         8.5141   40.7169   30.6293 H         1 CB8-G12         0.0650
     58 H30        13.0124   42.6969   29.7585 H         1 CB8-G12         0.4452
@<TRIPOS>BOND
     1    1    2 ar
     2    1    3 ar
     3    2    4 ar
     4    3    5 ar
     5    4   10 ar
     6    5   10 ar
     7    6    8 ar
     8    6   11 ar
     9    7    9 ar
    10    7   12 ar
    11    8    9 ar
    12    8   13 1
    13    9   14 1
    14   10   23 1
    15   11   12 ar
    16   11   27 1
    17   12   28 1
    18   13   19 1
    19   13   26 2
    20   14   19 1
    21   15   17 1
    22   15   20 1
    23   16   18 1
    24   16   20 1
    25   17   25 1
    26   18   25 1
    27   19   24 1
    28   20   24 1
    29   21   27 1
    30   22   28 1
    31   23   25 1
    32    1   29 1
    33    2   30 1
    34    3   31 1
    35    4   32 1
    36    5   33 1
    37    6   34 1
    38    7   35 1
    39   14   36 1
    40   14   37 1
    41   15   38 1
    42   15   39 1
    43   16   40 1
    44   16   41 1
    45   17   42 1
    46   17   43 1
    47   18   44 1
    48   18   45 1
    49   19   46 1
    50   20   47 1
    51   21   48 1
    52   21   49 1
    53   21   50 1
    54   22   51 1
    55   22   52 1
    56   22   53 1
    57   23   54 1
    58   23   55 1
    59   24   56 1
    60   24   57 1
    61   25   58 1
